6
Coordinates from ORCA-job Ethylene_Opt E -78.472829765453
  H       1.161030      0.066068      1.023885
  C       0.657896     -0.004459      0.063979
  H       1.335190     -0.083013     -0.781426
  C      -0.657835      0.004458     -0.063847
  H      -1.335485      0.083007      0.781272
  H      -1.160796     -0.066061     -1.023863
6
Coordinates from ORCA-job Ethylene_Opt E -78.473369057796
  H       1.161652      0.067094      1.036837
  C       0.661707     -0.004435      0.064335
  H       1.338331     -0.084092     -0.793984
  C      -0.661666      0.004441     -0.064243
  H      -1.338547      0.084086      0.793876
  H      -1.161476     -0.067094     -1.036822
6
Coordinates from ORCA-job Ethylene_Opt E -78.473485783856
  H       1.156195      0.067548      1.041520
  C       0.663231     -0.004423      0.064474
  H       1.333932     -0.084489     -0.799599
  C      -0.663210      0.004429     -0.064419
  H      -1.334062      0.084485      0.799537
  H      -1.156087     -0.067549     -1.041513
6
Coordinates from ORCA-job Ethylene_Opt E -78.473532418991
  H       1.149087      0.067872      1.044235
  C       0.663801     -0.004425      0.064521
  H       1.327542     -0.084720     -0.803599
  C      -0.663798      0.004427     -0.064506
  H      -1.327579      0.084720      0.803586
  H      -1.149053     -0.067873     -1.044236
6
Coordinates from ORCA-job Ethylene_Opt E -78.473534431026
  H       1.147765      0.067885      1.044128
  C       0.663584     -0.004432      0.064499
  H       1.326239     -0.084710     -0.803744
  C      -0.663583      0.004432     -0.064491
  H      -1.326257      0.084710      0.803738
  H      -1.147747     -0.067885     -1.044130
6
Coordinates from ORCA-job Ethylene_Opt E -78.473534496971
  H       1.147635      0.067879      1.044019
  C       0.663493     -0.004434      0.064489
  H       1.326096     -0.084701     -0.803659
  C      -0.663493      0.004434     -0.064484
  H      -1.326108      0.084701      0.803654
  H      -1.147623     -0.067879     -1.044019
