! B3LYP Def2-SVP Opt

* xyz 0 1
H        1.1610300000      0.0660680000      1.0238850000                 
C        0.6578960000     -0.0044590000      0.0639790000                 
H        1.3351900000     -0.0830130000     -0.7814260000                 
C       -0.6578350000      0.0044580000     -0.0638470000                 
H       -1.3354850000      0.0830070000      0.7812720000                 
H       -1.1607960000     -0.0660610000     -1.0238630000                 
*