! B3LYP def2-SVP Freq Usesym

* xyz 0 1
H        1.242719034      0.000000000      0.931267514
C        0.666634020      0.000000000      0.000000000
H        1.242719034      0.000000000     -0.931267514
C       -0.666634020      0.000000000      0.000000000
H       -1.242719034      0.000000000      0.931267514
H       -1.242719034      0.000000000     -0.931267514
*

