! B3LYP def2-SVP  

%output
   print[p_mos] 1
   print[p_basis] 2
end

* xyz 0 1
  H    1.14763538032723      0.06787867944812      1.04401871500948
  C    0.66349268258141     -0.00443412366993      0.06448921374936
  H    1.32609585559607     -0.08470073189697     -0.80365926899303
  C   -0.66349297051130      0.00443446347416     -0.06448407909659
  H   -1.32610760697121      0.08470054881831      0.80365397958594
  H   -1.14762334102220     -0.06787883617369     -1.04401856025516
*

